CM2.2
1900 1 1 0 0 0
#output files
"atmos_daily",   24,  "hours",  1, "days", "time",
"atmos_8xdaily",  3,  "hours",  1, "days", "time",
"atmos_8xdaily_instant", 3,  "hours",  1, "days", "time",
"atmos_month",    1,  "months", 1, "days", "time",
"atmos_month_aer",1,  "months", 1, "days", "time",
"atmos_scalar",   1,  "months", 1, "days", "time",
"ice_month",              1,  "months", 1, "days", "time",
"ice_daily",              1,  "days", 1, "days", "time",
"ocean_month",            1,  "months", 1, "days", "time"
"ocean_month_snap",            1,  "months", 1, "days", "time"
"ocean_daily",            1,  "days", 1, "days", "time"
#"ocean_transports",       1,  "years", 1, "days", "time"
"ocean_month_z",          1,  "months", 1, "days", "time"
"land_static",     -1,  "months", 1, "days", "time"
"land_month",       1,  "months", 1, "days", "time",
"land_daily",      24,  "hours",  1, "days", "time",
#
#output variables
#
#==================
# OCEAN DIAGNOSTICS
#==================
#

# Monthly snapshots of tracers, interface positions and Kd

"ocean_model","e","e","ocean_month_snap","all",.false.,"none",2
"ocean_model","temp","temp","ocean_month_snap","all",.false.,"none",2
"ocean_model","salt","salt","ocean_month_snap","all",.false.,"none",2
"ocean_model","u","u","ocean_month_snap","all",.false.,"none",2
"ocean_model","v","v","ocean_month_snap","all",.false.,"none",2
"ocean_model","salt_int","salt_int","ocean_month_snap","all",.false.,"none",2
"ocean_model","temp_int","temp_int","ocean_month_snap","all",.false.,"none",2

"ocean_model","Kd_shear","Kd_shear","ocean_month_snap","all",.false.,"none",2
"ocean_model","Kd_layer","Kd_layer","ocean_month_snap","all",.false.,"none",2
"ocean_model","Kd_work","Kd_work","ocean_month_snap","all",.false.,"none",2

# Monthly Avg transports in sigma2

"ocean_model","uh","uh","ocean_month","all",.true.,"none",2
"ocean_model","vh","vh","ocean_month","all",.true.,"none",2
"ocean_model","wd","wd","ocean_month","all",.true.,"none",2
"ocean_model","Res_fn","Res_fn","ocean_month","all",.true.,"none",2
"ocean_model","col_mass","col_mass","ocean_month","all",.true.,"none",2
"ocean_model","Tflx_dia_diff","Tflx_dia_diff","ocean_month","all",.true.,"none",2
"ocean_model","Tflx_dia_adv","Tflx_dia_adv","ocean_month","all",.true.,"none",2
"ocean_model","Sflx_dia_diff","Sflx_dia_diff","ocean_month","all",.true.,"none",2
"ocean_model","Sflx_dia_adv","Sflx_dia_adv","ocean_month","all",.true.,"none",2
"ocean_model","T_adx_2d","T_adx_2d","ocean_month","all",.true.,"none",2
"ocean_model","T_ady_2d","T_ady_2d","ocean_month","all",.true.,"none",2
"ocean_model","S_adx_2d","S_adx_2d","ocean_month","all",.true.,"none",2
"ocean_model","S_ady_2d","S_ady_2d","ocean_month","all",.true.,"none",2
"ocean_model","T_diffx_2d","T_diffx_2d","ocean_month","all",.true.,"none",2
"ocean_model","T_diffy_2d","T_diffy_2d","ocean_month","all",.true.,"none",2
"ocean_model","S_diffx_2d","S_diffx_2d","ocean_month","all",.true.,"none",2
"ocean_model","S_diffy_2d","S_diffy_2d","ocean_month","all",.true.,"none",2
"ocean_model","age","age","ocean_month","all",.true.,"none",2
"ocean_model","temp","temp","ocean_month","all",.true.,"none",2
"ocean_model","salt","salt","ocean_month","all",.true.,"none",2
"ocean_model","h","h","ocean_month","all",.true.,"none",2
"ocean_model","Kd_work","Kd_work","ocean_month","all",.true.,"none",2




# Monthly Avg Stress

#"ocean_model","taux",     "taux",     "ocean_month","all",.true.,"none",2
#"ocean_model","tauy",     "tauy",     "ocean_month","all",.true.,"none",2

# Monthly Avg tracers and velocity in z space

"ocean_model_z","thetao","thetao","ocean_month_z","all","mean","none",2
"ocean_model_z","so","so","ocean_month_z","all","mean","none",2
"ocean_model_z","age","age","ocean_month_z","all","mean","none",2
"ocean_model_z","uo","uo","ocean_month_z","all","mean","none",2
"ocean_model_z","vo","vo","ocean_month_z","all","mean","none",2
"ocean_model_z","uh","uh","ocean_month_z","all","mean","none",2
"ocean_model_z","vh","vh","ocean_month_z","all","mean","none",2


#===========================
# Mixed Layer and TKE Budget Terms:
#===========================

"ocean_model","h_ML","h_ML","ocean_daily","all",.true.,"none",2
#"ocean_model","ustar_shelf","ustar_shelf","ocean_daily","all",.true.,"none",2
"ocean_model","SST","SST","ocean_daily","all",.true.,"none",2
"ocean_model","SST","SST_max","ocean_daily","all",max,"none",2
"ocean_model","SST","SST_min","ocean_daily","all",min,"none",2
"ocean_model","SSS","SSS","ocean_daily","all",.true.,"none",2
"ocean_model","SSH","SSH","ocean_daily","all",.true.,"none",2
"ocean_model","SSU","SSU","ocean_daily","all",.true.,"none",2
"ocean_model","SSV","SSV","ocean_daily","all",.true.,"none",2
#"ocean_model","melt","melt","ocean_daily","all",.true.,"none",2

"ocean_model","uhbt","uhbt","ocean_daily","all",.true.,"none",2
"ocean_model","vhbt","vhbt","ocean_daily","all",.true.,"none",2
"ocean_model","subML_N2","subML_N2","ocean_daily","all",.true.,"none",2


#==================
# Surface Forcing:
#=================

"ocean_model","taux",     "taux",     "ocean_daily","all",.true.,"none",2
"ocean_model","tauy",     "tauy",     "ocean_daily","all",.true.,"none",2
"ocean_model","ustar",    "ustar",    "ocean_daily","all",.true.,"none",2
"ocean_model","PRCmE",      "PmE",      "ocean_daily","all",.true.,"none",2
"ocean_model","SW",       "SW",       "ocean_daily","all",.true.,"none",2
"ocean_model","LwLatSens","LwLatSens","ocean_daily","all",.true.,"none",2
"ocean_model","salt_flux","salt_flux","ocean_daily","all",.true.,"none",2
#"ocean_model","exch_vel_t",    "exch_vel_t",    "ocean_daily","all",.true.,"none",2
#"ocean_model","exch_vel_s",    "exch_vel_s",    "ocean_daily","all",.true.,"none",2
"ocean_model","frazil",   "frazil",   "ocean_daily","all",.true.,"none",2
"ocean_model","net_heat_surface","net_heat_surface","ocean_daily","all",.true.,"none",2
#
#================
# ICE DIAGNOSTICS
#================

 "ice_model", "CALVING",    "CALVING",    "ice_month", "all", .true., "none", 2
 "ice_model", "CN",         "CN",         "ice_month", "all", .true., "none", 2
 "ice_model", "HI",         "HI",         "ice_month", "all", .true., "none", 2
 "ice_model", "RUNOFF",     "RUNOFF",     "ice_month", "all", .true., "none", 2
 "ice_model", "SSH",        "SSH",        "ice_month", "all", .true., "none", 2

 "ice_model", "HI",        "HI",        "ice_daily", "all", .true., "none", 2
 "ice_model", "CN",        "CN",        "ice_daily", "all", .true., "none", 2
 "ice_model", "UO",        "UO",        "ice_daily", "all", .true., "none", 2
 "ice_model", "VO",        "VO",        "ice_daily", "all", .true., "none", 2
 "ice_model", "RUNOFF",     "RUNOFF",   "ice_daily", "all", .true., "none", 2
 "ice_model", "CALVING",     "CALVING",   "ice_daily", "all", .true., "none", 2
#
#=======================
# ATMOSPHERE DIAGNOSTICS
#=======================
#

## daily output
 "flux",      "evap",        "evap",        "atmos_daily", "all", .true.,  "none", 2
 "flux",      "lwflx",       "lwflx",       "atmos_daily", "all", .true.,  "none", 2
 "flux",      "shflx",       "shflx",       "atmos_daily", "all", .true.,  "none", 2
 "flux",      "tau_x",       "tau_x",       "atmos_daily", "all", .true.,  "none", 2
 "flux",      "tau_y",       "tau_y",       "atmos_daily", "all", .true.,  "none", 2
 "flux",      "t_ref",       "t_ref_min",   "atmos_daily", "all",  min,    "none", 2
 "flux",      "t_ref",       "t_ref_max",   "atmos_daily", "all",  max,    "none", 2
 "flux",      "t_surf",      "t_surf",      "atmos_daily", "all", .true.,  "none", 2
 "flux",      "wind",        "wind",        "atmos_daily", "all",  max,    "none", 2
## "flux" forcing fields for land model: wind, sphum_ref atmos_8xdaily
#"flux",      "sphum_ref",   "sphum_ref",   "atmos_8xdaily", "all", .true., "none", 2
#"flux",      "wind",        "wind",        "atmos_8xdaily", "all", .true., "none", 2
#
## instantaneous output
 "flux",      "t_ref",       "t_ref",       "atmos_8xdaily_instant","all",.false., "none", 2
#
 "flux",      "drag_heat",   "drag_heat",   "atmos_month", "all", .true.,  "none", 2
 "flux",      "drag_moist",  "drag_moist",  "atmos_month", "all", .true.,  "none", 2
 "flux",      "drag_mom",    "drag_mom",    "atmos_month", "all", .true.,  "none", 2
 "flux",      "evap",        "evap",        "atmos_month", "all", .true.,  "none", 2
 "flux",      "ice_mask",    "ice_mask",    "atmos_month", "all", .true.,  "none", 2
 "flux",      "land_mask",   "land_mask",   "atmos_month", "all", .false., "none", 2
 "flux",      "lwflx",       "lwflx",       "atmos_month", "all", .true.,  "none", 2
 "flux",      "rh_ref",      "rh_ref",      "atmos_month", "all", .true.,  "none", 2
 "flux",      "shflx",       "shflx",       "atmos_month", "all", .true.,  "none", 2
 "flux",      "tau_x",       "tau_x",       "atmos_month", "all", .true.,  "none", 2
 "flux",      "tau_y",       "tau_y",       "atmos_month", "all", .true.,  "none", 2
 "flux",      "t_ref",       "t_ref",       "atmos_month", "all", .true.,  "none", 2
 "flux",      "t_ref",       "t_ref_min",   "atmos_month", "all",  min,    "none", 2
 "flux",      "t_ref",       "t_ref_max",   "atmos_month", "all",  max,    "none", 2
 "flux",      "t_surf",      "t_surf",      "atmos_month", "all", .true.,  "none", 2
 "flux",      "u_ref",       "u_ref",       "atmos_month", "all", .true.,  "none", 2
 "flux",      "v_ref",       "v_ref",       "atmos_month", "all", .true.,  "none", 2
 "flux",      "wind",        "wind",        "atmos_month", "all", .true.,  "none", 2
#
 "dynamics",  "bk",          "bk",          "atmos_daily", "all", .false., "none", 2
 "dynamics",  "omega",       "omega",       "atmos_daily", "all", .true.,  "none", 2
 "dynamics",  "pk",          "pk",          "atmos_daily", "all", .false., "none", 2
 "dynamics",  "ps",          "ps",          "atmos_daily", "all", .true.,  "none", 2
 "dynamics",  "sphum",       "sphum",       "atmos_daily", "all", .true.,  "none", 2
 "dynamics",  "temp",        "temp",        "atmos_daily", "all", .true.,  "none", 4
 "dynamics",  "ucomp",       "ucomp",       "atmos_daily", "all", .true.,  "none", 4
 "dynamics",  "vcomp",       "vcomp",       "atmos_daily", "all", .true.,  "none", 4
 "dynamics",  "zsurf",       "zsurf",       "atmos_daily", "all", .false., "none", 2
 "dynamics",  "bk",          "bk",          "atmos_month", "all", .false., "none", 2
 "dynamics",  "pk",          "pk",          "atmos_month", "all", .false., "none", 2
 "dynamics",  "zsurf",       "zsurf",       "atmos_month", "all", .false., "none", 2
 "dynamics",  "cld_amt",     "cld_amt",     "atmos_month", "all", .true.,  "none", 2
 "dynamics",  "ice_wat",     "ice_wat",     "atmos_month", "all", .true.,  "none", 2
 "dynamics",  "liq_wat",     "liq_wat",     "atmos_month", "all", .true.,  "none", 2
 "dynamics",  "omega",       "omega",       "atmos_month", "all", .true.,  "none", 2
#"dynamics",  "pres_full",   "pres_full",   "atmos_month", "all", .true.,  "none", 2
#"dynamics",  "pres_half",   "pres_half",   "atmos_month", "all", .true.,  "none", 2
 "dynamics",  "ps",          "ps",          "atmos_month", "all", .true.,  "none", 2
 "dynamics",  "sphum",       "sphum",       "atmos_month", "all", .true.,  "none", 2
 "dynamics",  "temp",        "temp",        "atmos_month", "all", .true.,  "none", 2
#"dynamics",  "theta",       "theta",       "atmos_month", "all", .true.,  "none", 2
 "dynamics",  "ucomp",       "ucomp",       "atmos_month", "all", .true.,  "none", 2
 "dynamics",  "vcomp",       "vcomp",       "atmos_month", "all", .true.,  "none", 2
#
 "moist",     "precip",      "precip",      "atmos_daily", "all", .true.,  "none", 2
 "moist",     "prec_conv",   "prec_conv",   "atmos_daily", "all", .true.,  "none", 2
 "moist",     "prec_ls",     "prec_ls",     "atmos_daily", "all", .true.,  "none", 2
 "moist",     "snow_conv",   "snow_conv",   "atmos_daily", "all", .true.,  "none", 2
 "moist",     "snow_ls",     "snow_ls",     "atmos_daily", "all", .true.,  "none", 2
 "moist",     "precip",      "precip",      "atmos_8xdaily","all",.true.,  "none", 2
 "moist",     "prec_conv",   "prec_conv",   "atmos_month", "all", .true.,  "none", 2
 "moist",     "snow_conv",   "snow_conv",   "atmos_month", "all", .true.,  "none", 2
 "moist",     "prec_ls",     "prec_ls",     "atmos_month", "all", .true.,  "none", 2
 "moist",     "snow_ls",     "snow_ls",     "atmos_month", "all", .true.,  "none", 2
 "moist",     "IWP",         "IWP",         "atmos_month", "all", .true.,  "none", 2
 "moist",     "LWP",         "LWP",         "atmos_month", "all", .true.,  "none", 2
 "moist",     "precip",      "precip",      "atmos_month", "all", .true.,  "none", 2
 "moist",     "qdt_conv",    "qdt_conv",    "atmos_month", "all", .true.,  "none", 2
 "moist",     "tdt_conv",    "tdt_conv",    "atmos_month", "all", .true.,  "none", 2
 "moist",     "qdt_ls",      "qdt_ls",      "atmos_month", "all", .true.,  "none", 2
 "moist",     "rh",          "rh",          "atmos_month", "all", .true.,  "none", 2
 "moist",     "tdt_ls",      "tdt_ls",      "atmos_month", "all", .true.,  "none", 2
 "moist",     "WVP",         "WVP",         "atmos_month", "all", .true.,  "none", 2
#
 "ras",       "mc",          "mc",          "atmos_month", "all", .true.,  "none", 2
#
 "radiation", "lwdn_sfc",    "lwdn_sfc",    "atmos_daily", "all", .true.,  "none", 2
 "radiation", "lwup_sfc",    "lwup_sfc",    "atmos_daily", "all", .true.,  "none", 2
 "radiation", "olr",         "olr",         "atmos_daily", "all", .true.,  "none", 2
 "radiation", "swdn_sfc",    "swdn_sfc",    "atmos_daily", "all", .true.,  "none", 2
 "radiation", "swup_sfc",    "swup_sfc",    "atmos_daily", "all", .true.,  "none", 2
 "radiation", "swdn_toa",    "swdn_toa",    "atmos_daily", "all", .true.,  "none", 2
 "radiation", "swup_toa",    "swup_toa",    "atmos_daily", "all", .true.,  "none", 2
 "radiation", "alb_sfc",     "alb_sfc",     "atmos_month", "all", .true.,  "none", 2
 "radiation", "lwdn_sfc",    "lwdn_sfc",    "atmos_month", "all", .true.,  "none", 2
 "radiation", "lwup_sfc",    "lwup_sfc",    "atmos_month", "all", .true.,  "none", 2
 "radiation", "netrad_toa",  "netrad_toa",  "atmos_month", "all", .true.,  "none", 2
 "radiation", "olr",         "olr",         "atmos_month", "all", .true.,  "none", 2
 "radiation", "qo3",         "qo3",         "atmos_month", "all", .true.,  "none", 2
 "radiation", "qo3_col",     "qo3_col",     "atmos_month", "all", .true.,  "none", 2
 "radiation", "swdn_sfc",    "swdn_sfc",    "atmos_month", "all", .true.,  "none", 2
 "radiation", "swup_sfc",    "swup_sfc",    "atmos_month", "all", .true.,  "none", 2
 "radiation", "swdn_toa",    "swdn_toa",    "atmos_month", "all", .true.,  "none", 2
 "radiation", "swup_toa",    "swup_toa",    "atmos_month", "all", .true.,  "none", 2
 "radiation", "tdt_lw",      "tdt_lw",      "atmos_month", "all", .true.,  "none", 2
 "radiation", "tdt_sw",      "tdt_sw",      "atmos_month", "all", .true.,  "none", 2
 "radiation", "lwdn_sfc_clr","lwdn_sfc_clr","atmos_month", "all", .true.,  "none", 2
 "radiation", "lwup_sfc_clr","lwup_sfc_clr","atmos_month", "all", .true.,  "none", 2
 "radiation", "netrad_toa_clr","netrad_toa_clr","atmos_month", "all", .true.,"none", 2
 "radiation", "olr_clr",     "olr_clr",     "atmos_month", "all", .true.,  "none", 2
 "radiation", "swdn_sfc_clr","swdn_sfc_clr","atmos_month", "all", .true.,  "none", 2
 "radiation", "swup_sfc_clr","swup_sfc_clr","atmos_month", "all", .true.,  "none", 2
 "radiation", "swdn_toa_clr","swdn_toa_clr","atmos_month", "all", .true.,  "none", 2
 "radiation", "swup_toa_clr","swup_toa_clr","atmos_month", "all", .true.,  "none", 2
 "radiation", "tdt_lw_clr",  "tdt_lw_clr",  "atmos_month", "all", .true.,  "none", 2
 "radiation", "tdt_sw_clr",  "tdt_sw_clr",  "atmos_month", "all", .true.,  "none", 2
#
 "radiation", "netlw_lin_trop",    "netlw_lin_trop",    "atmos_month", "all", .true.,  "none", 2
 "radiation", "netlw_200hPa",      "netlw_200hPa",      "atmos_month", "all", .true.,  "none", 2
 "radiation", "swdn_lin_trop",     "swdn_lin_trop",     "atmos_month", "all", .true.,  "none", 2
 "radiation", "swdn_200hPa",       "swdn_200hPa",       "atmos_month", "all", .true.,  "none", 2
 "radiation", "swup_200hPa",       "swup_200hPa",       "atmos_month", "all", .true.,  "none", 2
 "radiation", "swup_lin_trop",     "swup_lin_trop",     "atmos_month", "all", .true.,  "none", 2
 "radiation", "netlw_lin_trop_clr","netlw_lin_trop_clr","atmos_month", "all", .true.,  "none", 2
 "radiation", "netlw_200hPa_clr",  "netlw_200hPa_clr",  "atmos_month", "all", .true.,  "none", 2
 "radiation", "swdn_lin_trop_clr", "swdn_lin_trop_clr", "atmos_month", "all", .true.,  "none", 2
 "radiation", "swdn_200hPa_clr",   "swdn_200hPa_clr",   "atmos_month", "all", .true.,  "none", 2
 "radiation", "swup_lin_trop_clr", "swup_lin_trop_clr", "atmos_month", "all", .true.,  "none", 2
 "radiation", "swup_200hPa_clr",   "swup_200hPa_clr",   "atmos_month", "all", .true.,  "none", 2
#
## aerosols
## for the aerosol fields, set do_cmip_diagnostics=.true. in shortwave_driver_nml
#"radiation","olr_800_1200",      "olr_800_1200",      "atmos_month_aer",  "all", .true.,"none", 2
#"radiation","olr_900_990",       "olr_900_990",       "atmos_month_aer",  "all", .true.,"none", 2
#"radiation","sfc_800_1200",      "sfc_800_1200",      "atmos_month_aer",  "all", .true.,"none", 2
#"radiation","sfc_900_990",       "sfc_900_990",       "atmos_month_aer",  "all", .true.,"none", 2
#"radiation","olr_800_1200_cf",   "olr_800_1200_cf",   "atmos_month_aer",  "all", .true.,"none", 2
#"radiation","olr_900_990_cf",    "olr_900_990_cf",    "atmos_month_aer",  "all", .true.,"none", 2
#"radiation","sfc_800_1200_cf",   "sfc_800_1200_cf",   "atmos_month_aer",  "all", .true.,"none", 2
#"radiation","sfc_900_990_cf",    "sfc_900_990_cf",    "atmos_month_aer",  "all", .true.,"none", 2
 "radiation","swup_toa_vis",      "swup_toa_vis",      "atmos_month_aer",  "all", .true.,"none", 2
 "radiation","swup_toa_1p6",      "swup_toa_1p6",      "atmos_month_aer",  "all", .true.,"none", 2
 "radiation","swnt_sfc_vis",      "swnt_sfc_vis",      "atmos_month_aer",  "all", .true.,"none", 2
 "radiation","swnt_sfc_1p6",      "swnt_sfc_1p6",      "atmos_month_aer",  "all", .true.,"none", 2
 "radiation","swup_toa_vis_cf",   "swup_toa_vis_cf",   "atmos_month_aer",  "all", .true.,"none", 2
 "radiation","swup_toa_1p6_cf",   "swup_toa_1p6_cf",   "atmos_month_aer",  "all", .true.,"none", 2
 "radiation","swnt_sfc_vis_cf",   "swnt_sfc_vis_cf",   "atmos_month_aer",  "all", .true.,"none", 2
 "radiation","swnt_sfc_1p6_cf",   "swnt_sfc_1p6_cf",   "atmos_month_aer",  "all", .true.,"none", 2

#"radiation", "bnd5_extopdep_vlcno", "bnd5_exopd_vl",     "atmos_month_aer", "all", .true.,"none", 2
#"radiation", "lw_b5_extopdep_vlcno_c", "b5_exopd_vl_c",  "atmos_month_aer", "all", .true.,"none", 2
#"radiation", "bnd6_lwext_vlcno", "bnd6_lwext_vl",        "atmos_month_aer", "all", .true.,"none", 2
#"radiation", "bnd6_extopdep_vlcno_c", "bnd6_exopd_vl_c", "atmos_month_aer", "all", .true.,"none", 2
#"radiation", "visband_swext_vlcno", "vis_swext_vl",      "atmos_month_aer", "all", .true.,"none", 2
#"radiation", "visband_swssa_vlcno", "vis_swssa_vl",      "atmos_month_aer", "all", .true.,"none", 2
#"radiation", "visband_swasy_vlcno", "vis_swasy_vl",      "atmos_month_aer", "all", .true.,"none", 2
#"radiation", "vis_extopdep_vlcno_c", "vis_exopd_vl_c",   "atmos_month_aer", "all", .true.,"none", 2
#"radiation", "nirband_swext_vlcno", "nir_swext_vl",      "atmos_month_aer", "all", .true.,"none", 2
#"radiation", "nirband_swssa_vlcno", "nir_swssa_vl",      "atmos_month_aer", "all", .true.,"none", 2
#"radiation", "nirband_swasy_vlcno", "nir_swasy_vl",      "atmos_month_aer", "all", .true.,"none", 2
#"radiation", "nir_extopdep_vlcno_c", "nir_exopd_vl_c",   "atmos_month_aer", "all", .true.,"none", 2

 "radiation", "small_dust",         "sm_dust",     "atmos_month_aer", "all", .true.,"none", 2
 "radiation", "small_dust_col",     "sm_dust_col", "atmos_month_aer", "all", .true.,"none", 2
 "radiation", "large_dust",         "lg_dust",     "atmos_month_aer", "all", .true.,"none", 2
 "radiation", "large_dust_col",     "lg_dust_col", "atmos_month_aer", "all", .true.,"none", 2
 "radiation", "sulfate",            "sulfate",     "atmos_month_aer", "all", .true.,"none", 2
 "radiation", "sulfate_col",        "sulfate_col", "atmos_month_aer", "all", .true.,"none", 2
 "radiation", "black_carbon",       "blk_crb",     "atmos_month_aer", "all", .true.,"none", 2
 "radiation", "black_carbon_col",   "blk_crb_col", "atmos_month_aer", "all", .true.,"none", 2
 "radiation", "organic_carbon",     "org_crb",     "atmos_month_aer", "all", .true.,"none", 2
 "radiation", "organic_carbon_col", "org_crb_col", "atmos_month_aer", "all", .true.,"none", 2
 "radiation", "sea_salt",           "salt",        "atmos_month_aer", "all", .true.,"none", 2
 "radiation", "sea_salt_col",       "salt_col",    "atmos_month_aer", "all", .true.,"none", 2
 "radiation", "aerosol",            "aer",         "atmos_month_aer", "all", .true.,"none", 2
 "radiation", "aerosol_col",        "aer_c",       "atmos_month_aer", "all", .true.,"none", 2

 "radiation", "small_dust_exopdep_vis", "sm_dst_ex_vs", "atmos_month_aer", "all", .true., "none", 2
 "radiation", "small_dust_exopdep_nir", "sm_dst_ex_ir", "atmos_month_aer", "all", .true., "none", 2
 "radiation", "small_dust_exopdep_con", "sm_dst_ex_cn", "atmos_month_aer", "all", .true., "none", 2
 "radiation", "small_dust_exopdep_col_vis", "sm_dst_ex_c_vs", "atmos_month_aer", "all", .true., "none", 2
 "radiation", "small_dust_exopdep_col_nir", "sm_dst_ex_c_ir", "atmos_month_aer", "all", .true., "none", 2
 "radiation", "small_dust_exopdep_col_con", "sm_dst_ex_c_cn", "atmos_month_aer", "all", .true., "none", 2
 "radiation", "small_dust_abopdep_vis", "sm_dst_ab_vs", "atmos_month_aer", "all", .true., "none", 2
 "radiation", "small_dust_abopdep_nir", "sm_dst_ab_ir", "atmos_month_aer", "all", .true., "none", 2
 "radiation", "small_dust_abopdep_con", "sm_dst_ab_cn", "atmos_month_aer", "all", .true., "none", 2
 "radiation", "small_dust_abopdep_col_vis", "sm_dst_ab_c_vs", "atmos_month_aer", "all", .true., "none", 2
 "radiation", "small_dust_abopdep_col_nir", "sm_dst_ab_c_ir", "atmos_month_aer", "all", .true., "none", 2
 "radiation", "small_dust_abopdep_col_con", "sm_dst_ab_c_cn", "atmos_month_aer", "all", .true., "none", 2

 "radiation", "large_dust_exopdep_vis", "lg_dst_ex_vs", "atmos_month_aer", "all", .true., "none", 2
 "radiation", "large_dust_exopdep_nir", "lg_dst_ex_ir", "atmos_month_aer", "all", .true., "none", 2
 "radiation", "large_dust_exopdep_con", "lg_dst_ex_cn", "atmos_month_aer", "all", .true., "none", 2
 "radiation", "large_dust_exopdep_col_vis", "lg_dst_ex_c_vs", "atmos_month_aer", "all", .true., "none", 2
 "radiation", "large_dust_exopdep_col_nir", "lg_dst_ex_c_ir", "atmos_month_aer", "all", .true., "none", 2
 "radiation", "large_dust_exopdep_col_con", "lg_dst_ex_c_cn", "atmos_month_aer", "all", .true., "none", 2
 "radiation", "large_dust_abopdep_vis", "lg_dst_ab_vs", "atmos_month_aer", "all", .true., "none", 2
 "radiation", "large_dust_abopdep_nir", "lg_dst_ab_ir", "atmos_month_aer", "all", .true., "none", 2
 "radiation", "large_dust_abopdep_con", "lg_dst_ab_cn", "atmos_month_aer", "all", .true., "none", 2
 "radiation", "large_dust_abopdep_col_vis", "lg_dst_ab_c_vs", "atmos_month_aer", "all", .true., "none", 2
 "radiation", "large_dust_abopdep_col_nir", "lg_dst_ab_c_ir", "atmos_month_aer", "all", .true., "none", 2
 "radiation", "large_dust_abopdep_col_con", "lg_dst_ab_c_cn", "atmos_month_aer", "all", .true., "none", 2
 
 "radiation", "organic_carbon_exopdep_vis", "org_crb_ex_vs", "atmos_month_aer", "all", .true., "none", 2
 "radiation", "organic_carbon_exopdep_nir", "org_crb_ex_ir", "atmos_month_aer", "all", .true., "none", 2
 "radiation", "organic_carbon_exopdep_con", "org_crb_ex_cn", "atmos_month_aer", "all", .true., "none", 2
 "radiation", "organic_carbon_exopdep_col_vis", "org_crb_ex_c_vs", "atmos_month_aer", "all", .true., "none", 2
 "radiation", "organic_carbon_exopdep_col_nir", "org_crb_ex_c_ir", "atmos_month_aer", "all", .true., "none", 2
 "radiation", "organic_carbon_exopdep_col_con", "org_crb_ex_c_cn", "atmos_month_aer", "all", .true., "none", 2
 "radiation", "organic_carbon_abopdep_vis", "org_crb_ab_vs", "atmos_month_aer", "all", .true., "none", 2
 "radiation", "organic_carbon_abopdep_nir", "org_crb_ab_ir", "atmos_month_aer", "all", .true., "none", 2
 "radiation", "organic_carbon_abopdep_con", "org_crb_ab_cn", "atmos_month_aer", "all", .true., "none", 2
 "radiation", "organic_carbon_abopdep_col_vis", "org_crb_ab_c_vs", "atmos_month_aer", "all", .true., "none", 2
 "radiation", "organic_carbon_abopdep_col_nir", "org_crb_ab_c_ir", "atmos_month_aer", "all", .true., "none", 2
 "radiation", "organic_carbon_abopdep_col_con", "org_crb_ab_c_cn", "atmos_month_aer", "all", .true., "none", 2

 "radiation", "sulfate_exopdep_vis", "sulfate_ex_vs", "atmos_month_aer", "all", .true., "none", 2
 "radiation", "sulfate_exopdep_nir", "sulfate_ex_ir", "atmos_month_aer", "all", .true., "none", 2
 "radiation", "sulfate_exopdep_con", "sulfate_ex_cn", "atmos_month_aer", "all", .true., "none", 2
 "radiation", "sulfate_exopdep_col_vis", "sulfate_ex_c_vs", "atmos_month_aer", "all", .true., "none", 2
 "radiation", "sulfate_exopdep_col_nir", "sulfate_ex_c_ir", "atmos_month_aer", "all", .true., "none", 2
 "radiation", "sulfate_exopdep_col_con", "sulfate_ex_c_cn", "atmos_month_aer", "all", .true., "none", 2
 "radiation", "sulfate_abopdep_vis", "sulfate_ab_vs", "atmos_month_aer", "all", .true., "none", 2
 "radiation", "sulfate_abopdep_nir", "sulfate_ab_ir", "atmos_month_aer", "all", .true., "none", 2
 "radiation", "sulfate_abopdep_con", "sulfate_ab_cn", "atmos_month_aer", "all", .true., "none", 2
 "radiation", "sulfate_abopdep_col_vis", "sulfate_ab_c_vs", "atmos_month_aer", "all", .true., "none", 2
 "radiation", "sulfate_abopdep_col_nir", "sulfate_ab_c_ir", "atmos_month_aer", "all", .true., "none", 2
 "radiation", "sulfate_abopdep_col_con", "sulfate_ab_c_cn", "atmos_month_aer", "all", .true., "none", 2

 "radiation", "black_carbon_exopdep_vis", "blk_crb_ex_vs", "atmos_month_aer", "all", .true., "none", 2
 "radiation", "black_carbon_exopdep_nir", "blk_crb_ex_ir", "atmos_month_aer", "all", .true., "none", 2
 "radiation", "black_carbon_exopdep_con", "blk_crb_ex_cn", "atmos_month_aer", "all", .true., "none", 2
 "radiation", "black_carbon_exopdep_col_vis", "blk_crb_ex_c_vs", "atmos_month_aer", "all", .true., "none", 2
 "radiation", "black_carbon_exopdep_col_nir", "blk_crb_ex_c_ir", "atmos_month_aer", "all", .true., "none", 2
 "radiation", "black_carbon_exopdep_col_con", "blk_crb_ex_c_cn", "atmos_month_aer", "all", .true., "none", 2
 "radiation", "black_carbon_abopdep_vis", "blk_crb_ab_vs", "atmos_month_aer", "all", .true., "none", 2
 "radiation", "black_carbon_abopdep_nir", "blk_crb_ab_ir", "atmos_month_aer", "all", .true., "none", 2
 "radiation", "black_carbon_abopdep_con", "blk_crb_ab_cn", "atmos_month_aer", "all", .true., "none", 2
 "radiation", "black_carbon_abopdep_col_vis", "blk_crb_ab_c_vs", "atmos_month_aer", "all", .true., "none", 2
 "radiation", "black_carbon_abopdep_col_nir", "blk_crb_ab_c_ir", "atmos_month_aer", "all", .true., "none", 2
 "radiation", "black_carbon_abopdep_col_con", "blk_crb_ab_c_cn", "atmos_month_aer", "all", .true., "none", 2

 "radiation", "sea_salt_exopdep_vis", "salt_ex_vs", "atmos_month_aer", "all", .true., "none", 2
 "radiation", "sea_salt_exopdep_nir", "salt_ex_ir", "atmos_month_aer", "all", .true., "none", 2
 "radiation", "sea_salt_exopdep_con", "salt_ex_cn", "atmos_month_aer", "all", .true., "none", 2
 "radiation", "sea_salt_exopdep_col_vis", "salt_ex_c_vs", "atmos_month_aer", "all", .true., "none", 2
 "radiation", "sea_salt_exopdep_col_nir", "salt_ex_c_ir", "atmos_month_aer", "all", .true., "none", 2
 "radiation", "sea_salt_exopdep_col_con", "salt_ex_c_cn", "atmos_month_aer", "all", .true., "none", 2
 "radiation", "sea_salt_abopdep_vis", "salt_ab_vs", "atmos_month_aer", "all", .true., "none", 2
 "radiation", "sea_salt_abopdep_nir", "salt_ab_ir", "atmos_month_aer", "all", .true., "none", 2
 "radiation", "sea_salt_abopdep_con", "salt_ab_cn", "atmos_month_aer", "all", .true., "none", 2
 "radiation", "sea_salt_abopdep_col_vis", "salt_ab_c_vs", "atmos_month_aer", "all", .true., "none", 2
 "radiation", "sea_salt_abopdep_col_nir", "salt_ab_c_ir", "atmos_month_aer", "all", .true., "none", 2
 "radiation", "sea_salt_abopdep_col_con", "salt_ab_c_cn", "atmos_month_aer", "all", .true., "none", 2

 "radiation", "aerosol_exopdep_vis", "aer_ex_vs", "atmos_month_aer", "all", .true., "none", 2
 "radiation", "aerosol_exopdep_nir", "aer_ex_ir", "atmos_month_aer", "all", .true., "none", 2
 "radiation", "aerosol_exopdep_con", "aer_ex_cn", "atmos_month_aer", "all", .true., "none", 2
 "radiation", "aerosol_exopdep_col_vis", "aer_ex_c_vs", "atmos_month_aer", "all", .true., "none", 2
 "radiation", "aerosol_exopdep_col_nir", "aer_ex_c_ir", "atmos_month_aer", "all", .true., "none", 2
 "radiation", "aerosol_exopdep_col_con", "aer_ex_c_cn", "atmos_month_aer", "all", .true., "none", 2
 "radiation", "aerosol_abopdep_vis", "aer_ab_vs", "atmos_month_aer", "all", .true., "none", 2
 "radiation", "aerosol_abopdep_nir", "aer_ab_ir", "atmos_month_aer", "all", .true., "none", 2
 "radiation", "aerosol_abopdep_con", "aer_ab_cn", "atmos_month_aer", "all", .true., "none", 2
 "radiation", "aerosol_abopdep_col_vis", "aer_ab_c_vs", "atmos_month_aer", "all", .true., "none", 2
 "radiation", "aerosol_abopdep_col_nir", "aer_ab_c_ir", "atmos_month_aer", "all", .true., "none", 2
 "radiation", "aerosol_abopdep_col_con", "aer_ab_c_cn", "atmos_month_aer", "all", .true., "none", 2
#
## globally averaged ghg
 "radiation", "rrvch4", "rrvch4", "atmos_scalar", "all", .true., "none", 2